<?xml version="1.0" encoding="UTF-8"?>
<!-- generated on 2018-02-27 14:00:44.588000 by $Id$
  options: -n .\map.net.xml -r map.rou.xml -e 100 -l
-->
<routes xmlns:xsi="http://www.w3.org/2001/XMLSchema-instance" xsi:noNamespaceSchemaLocation="http://sumo.dlr.de/xsd/routes_file.xsd">
    <trip id="0" depart="0.00" from="25988252" to="-81650447#0"/>
    <trip id="1" depart="1.00" from="25988597#3" to="60545849#1"/>
    <trip id="2" depart="2.00" from="-25989295#3" to="-25987526#0"/>
    <trip id="3" depart="3.00" from="25989544#1" to="-25987799#2"/>
    <trip id="4" depart="4.00" from="25988461#3" to="-25987549#0"/>
    <trip id="5" depart="5.00" from="-234951308" to="-231930346#5"/>
    <trip id="6" depart="6.00" from="68570755#0" to="40998727#0"/>
    <trip id="7" depart="7.00" from="-27392763#0" to="25986976#6"/>
    <trip id="8" depart="8.00" from="112468638#1" to="-67656769"/>
    <trip id="9" depart="9.00" from="25988562#0" to="-157913775#7"/>
    <trip id="10" depart="10.00" from="25989018#0" to="25986538#0"/>
    <trip id="11" depart="11.00" from="-25986990#0" to="-234951317#2"/>
    <trip id="12" depart="12.00" from="25988317#2" to="164408178"/>
    <trip id="13" depart="13.00" from="-67525080#1" to="-80476603#0"/>
    <trip id="14" depart="14.00" from="-25988843" to="-44793370"/>
    <trip id="15" depart="15.00" from="25987389#0" to="25988097"/>
    <trip id="16" depart="16.00" from="164407828#13" to="115400332#1"/>
    <trip id="17" depart="17.00" from="186708041#2" to="25986613#0"/>
    <trip id="18" depart="18.00" from="-40699392#1" to="25988213"/>
    <trip id="19" depart="19.00" from="25986841#0" to="-157874187#3"/>
    <trip id="20" depart="20.00" from="201953123" to="234951310#1"/>
    <trip id="21" depart="21.00" from="-164408447#0" to="235063244#0"/>
    <trip id="22" depart="22.00" from="-25987389#0" to="25986712#0"/>
    <trip id="23" depart="23.00" from="-79136915#0" to="-25989544#1"/>
    <trip id="24" depart="24.00" from="235063244#0" to="-25987699#1"/>
    <trip id="25" depart="25.00" from="26944622#0" to="-38633219#1"/>
    <trip id="26" depart="26.00" from="-25985939#1" to="-40700186#5"/>
    <trip id="27" depart="27.00" from="-162747171#5" to="28640629#0"/>
    <trip id="28" depart="28.00" from="-167262175#0" to="25986164#3"/>
    <trip id="29" depart="29.00" from="25989423#4" to="-25987990#0"/>
    <trip id="30" depart="30.00" from="-39187489#4" to="-25989472#3"/>
    <trip id="31" depart="31.00" from="60545769#2" to="172089716#0"/>
    <trip id="32" depart="32.00" from="162797446#1" to="529814738#2"/>
    <trip id="33" depart="33.00" from="25986990#2" to="-25987440#0"/>
    <trip id="34" depart="34.00" from="25987452#5" to="-165792245"/>
    <trip id="35" depart="35.00" from="60545795#1" to="161834501"/>
    <trip id="36" depart="36.00" from="38777440" to="-25988385#0"/>
    <trip id="37" depart="37.00" from="-25989542#1" to="-159092879#0"/>
    <trip id="38" depart="38.00" from="-160423100#1" to="81453864#0"/>
    <trip id="39" depart="39.00" from="-436942259" to="-40583423#1"/>
    <trip id="40" depart="40.00" from="-25988501" to="-25987146#1"/>
    <trip id="41" depart="41.00" from="60545871" to="-25987008#1"/>
    <trip id="42" depart="42.00" from="162747170#2" to="-25986023#6"/>
    <trip id="43" depart="43.00" from="-369383395" to="25987526#5"/>
    <trip id="44" depart="44.00" from="38753842#0" to="-25988217#0"/>
    <trip id="45" depart="45.00" from="-25987288#4" to="25987784#0"/>
    <trip id="46" depart="46.00" from="-40700186#1" to="25988087#2"/>
    <trip id="47" depart="47.00" from="25987383#7" to="-314705679#0"/>
    <trip id="48" depart="48.00" from="-25989653#4" to="-25987379#6"/>
    <trip id="49" depart="49.00" from="-526100278" to="25989739#0"/>
    <trip id="50" depart="50.00" from="25986712#4" to="-377355142"/>
    <trip id="51" depart="51.00" from="512360830#4" to="526682192"/>
    <trip id="52" depart="52.00" from="-25988610#1" to="-25989553#1"/>
    <trip id="53" depart="53.00" from="-28663406#3" to="-25988248"/>
    <trip id="54" depart="54.00" from="-25988907#0" to="-25987961#1"/>
    <trip id="55" depart="55.00" from="166380294" to="-25988944#1"/>
    <trip id="56" depart="56.00" from="-160058082#0" to="-25986924#0"/>
    <trip id="57" depart="57.00" from="34104147" to="-543496267#3"/>
    <trip id="58" depart="58.00" from="304565629" to="60545849#1"/>
    <trip id="59" depart="59.00" from="-526811250#1" to="-170515404#4"/>
    <trip id="60" depart="60.00" from="165129767#2" to="25986974#3"/>
    <trip id="61" depart="61.00" from="-40583423#1" to="25989533#0"/>
    <trip id="62" depart="62.00" from="214506933" to="25989374"/>
    <trip id="63" depart="63.00" from="-25986461#0" to="-67656783"/>
    <trip id="64" depart="64.00" from="111718022" to="543496267#2"/>
    <trip id="65" depart="65.00" from="38753842#0" to="-81650460"/>
    <trip id="66" depart="66.00" from="-215508764" to="25987524#1"/>
    <trip id="67" depart="67.00" from="-453728325" to="-68570776"/>
    <trip id="68" depart="68.00" from="-25987750#8" to="25989583#1"/>
    <trip id="69" depart="69.00" from="-25988718#0" to="-209566604#5"/>
    <trip id="70" depart="70.00" from="-25985980#1" to="25986202#2"/>
    <trip id="71" depart="71.00" from="-155262413#5" to="25986843"/>
    <trip id="72" depart="72.00" from="-153713026" to="-314705679#0"/>
    <trip id="73" depart="73.00" from="-167271696" to="438325863#0"/>
    <trip id="74" depart="74.00" from="-60545769#1" to="-25989447"/>
    <trip id="75" depart="75.00" from="25987999#0" to="241860871#1"/>
    <trip id="76" depart="76.00" from="-25988026#0" to="-26987232#0"/>
    <trip id="77" depart="77.00" from="-25989537#0" to="25987466"/>
    <trip id="78" depart="78.00" from="25988944#1" to="-25988887"/>
    <trip id="79" depart="79.00" from="39473463#0" to="-25987389#2"/>
    <trip id="80" depart="80.00" from="25988166" to="-136239765#1"/>
    <trip id="81" depart="81.00" from="25989653#0" to="165802049#1"/>
    <trip id="82" depart="82.00" from="-26987237#3" to="170936309#1"/>
    <trip id="83" depart="83.00" from="-157874187#2" to="-25989015"/>
    <trip id="84" depart="84.00" from="-25989010#1" to="529814738#2"/>
    <trip id="85" depart="85.00" from="-25988718#0" to="-92085036#1"/>
    <trip id="86" depart="86.00" from="-231762429" to="-81602714#2"/>
    <trip id="87" depart="87.00" from="40566036#2" to="165791835#5"/>
    <trip id="88" depart="88.00" from="-40592974#1" to="-25988616#0"/>
    <trip id="89" depart="89.00" from="-67525080#1" to="-164408442#1"/>
    <trip id="90" depart="90.00" from="-81458108" to="527740178"/>
    <trip id="91" depart="91.00" from="-25986212#2" to="25988254#16"/>
    <trip id="92" depart="92.00" from="-526171759" to="166054829#0"/>
    <trip id="93" depart="93.00" from="25989364" to="29497545"/>
    <trip id="94" depart="94.00" from="79136915#0" to="165129772#1"/>
    <trip id="95" depart="95.00" from="25986622#2" to="-527254419"/>
    <trip id="96" depart="96.00" from="25989549#2" to="25986504#2"/>
    <trip id="97" depart="97.00" from="-25987538#0" to="25988946#4"/>
    <trip id="98" depart="98.00" from="400637240#0" to="40583423#1"/>
    <trip id="99" depart="99.00" from="-25986425#3" to="25986545#0"/>
</routes>
